format/param.json
{"PgUB":[208,63,40,20,40,8,5,5,8,12,5,2,3,2],"ProM":[5.0,5.0,4.0,5.0,3.0,2.0,1.0,1.0,0.7,0.6,0.8,0.6,0.8,0.5],"AngleLimit":0.15707963267948966,"Pgbar":[1,1,2,2,1,3,4,4,2,1,2,4,2,4],"B":14,"EDGE":[[0,0,0,0,0,0,0,0,0,0,0,0,0,0],[1,0,0,0,0,0,0,0,0,0,0,0,0,0],[0,1,0,0,0,0,0,0,0,0,0,0,0,0],[0,1,1,0,0,0,0,0,0,0,0,0,0,0],[1,1,0,1,0,0,0,0,0,0,0,0,0,0],[0,0,0,0,1,0,0,0,0,0,0,0,0,0],[0,0,0,1,0,0,0,0,0,0,0,0,0,0],[0,0,0,0,0,0,1,0,0,0,0,0,0,0],[0,0,0,1,0,0,1,0,0,0,0,0,0,0],[0,0,0,0,0,0,0,0,1,0,0,0,0,0],[0,0,0,0,0,1,0,0,0,1,0,0,0,0],[0,0,0,0,0,1,0,0,0,0,0,0,0,0],[0,0,0,0,0,1,0,0,0,0,0,1,0,0],[0,0,0,0,0,0,0,0,1,0,0,0,1,0]],"H0":[0,0,0,0,0,0,0,0,0,0,0,0,0,0],"Hbar":[2,3,3,3,3,3,8,12,8,8,10,15,15,15],"gen":{"4":{"qc1max":0.0,"qc2max":0.0,"qg":13.23,"gen_bus":6,"ramp_10":0.0,"mbase":100.0,"pc2":0.0,"index":4,"qmax":24.0,"pc1":0.0,"ramp_q":0.0,"ramp_30":0.0,"apf":0.0,"pg":0.0,"ramp_agc":0.0,"pmax":0.0,"vg":1.06,"gen_status":1,"qmin":-6.0,"qc1min":0.0,"qc2min":0.0,"pmin":0.0},"2":{"qc1max":0.0,"qc2max":0.0,"qg":26.964,"gen_bus":2,"ramp_10":0.0,"mbase":100.0,"pc2":0.0,"index":2,"qmax":32.0,"pc1":0.0,"ramp_q":0.0,"ramp_30":0.0,"apf":0.0,"pg":63.0,"ramp_agc":0.0,"pmax":63.0,"vg":1.04017,"gen_status":1,"qmin":-32.0,"qc1min":0.0,"qc2min":0.0,"pmin":0.0},"3":{"qc1max":0.0,"qc2max":0.0,"qg":29.63,"gen_bus":3,"ramp_10":0.0,"mbase":100.0,"pc2":0.0,"index":3,"qmax":40.0,"pc1":0.0,"ramp_q":0.0,"ramp_30":0.0,"apf":0.0,"pg":0.0,"ramp_agc":0.0,"pmax":0.0,"vg":1.00788,"gen_status":1,"qmin":0.0,"qc1min":0.0,"qc2min":0.0,"pmin":0.0},"5":{"qc1max":0.0,"qc2max":0.0,"qg":9.618,"gen_bus":8,"ramp_10":0.0,"mbase":100.0,"pc2":0.0,"index":5,"qmax":24.0,"pc1":0.0,"ramp_q":0.0,"ramp_30":0.0,"apf":0.0,"pg":0.0,"ramp_agc":0.0,"pmax":0.0,"vg":1.06,"gen_status":1,"qmin":-6.0,"qc1min":0.0,"qc2min":0.0,"pmin":0.0},"1":{"qc1max":0.0,"qc2max":0.0,"qg":0.0,"gen_bus":1,"ramp_10":0.0,"mbase":100.0,"pc2":0.0,"index":1,"qmax":10.0,"pc1":0.0,"ramp_q":0.0,"ramp_30":0.0,"apf":0.0,"pg":208.317,"ramp_agc":0.0,"pmax":362.0,"vg":1.06,"gen_status":1,"qmin":0.0,"qc1min":0.0,"qc2min":0.0,"pmin":0.0}},"T":6,"Cg":[[178.2,346.5,198.0,128.7,158.4,148.5,69.3,39.6,99.0,79.2,49.5,19.8,14.85,19.8],[178.2,346.5,198.0,128.7,158.4,148.5,69.3,39.6,99.0,79.2,49.5,19.8,14.85,19.8],[178.2,346.5,198.0,128.7,158.4,148.5,69.3,39.6,99.0,79.2,49.5,19.8,14.85,19.8],[178.2,346.5,198.0,128.7,158.4,148.5,69.3,39.6,99.0,79.2,49.5,19.8,14.85,19.8],[178.2,346.5,198.0,128.7,158.4,148.5,69.3,39.6,99.0,79.2,49.5,19.8,14.85,19.8],[178.2,346.5,198.0,128.7,158.4,148.5,69.3,39.6,99.0,79.2,49.5,19.8,14.85,19.8]],"Ele":[13,25,22,11,15,13,8,5,11,9,7,4,3,5],"L":20,"aslDet":[[[true,true,true,true,true,true,true,true,true,true,true,true,true,true],[true,true,true,true,true,true,true,true,true,true,true,true,true,true],[true,true,true,true,true,true,true,true,true,true,true,true,true,true],[true,true,true,true,true,true,true,true,true,true,true,true,true,true],[true,true,true,true,true,true,true,true,true,true,true,true,true,true],[true,true,true,true,true,true,true,true,true,true,true,true,true,true]],[[true,true,true,true,true,true,true,true,true,true,true,true,true,true],[true,true,true,true,true,true,true,true,true,true,true,true,true,true],[true,true,true,true,true,true,true,true,true,true,true,true,true,true],[true,true,true,true,true,true,true,true,true,true,true,true,true,true],[true,true,true,true,true,true,true,true,true,true,true,true,true,true],[true,true,true,true,true,true,true,true,true,true,true,true,true,true]],[[true,true,true,true,true,true,true,true,true,true,true,true,true,true],[true,true,true,true,true,true,true,true,true,true,true,true,true,true],[true,true,true,true,true,true,true,true,true,true,true,true,true,true],[true,true,true,true,true,true,true,true,true,true,true,true,true,true],[true,true,true,true,true,true,true,true,true,true,true,true,true,true],[true,true,true,true,true,true,true,true,true,true,true,true,true,true]],[[true,true,true,true,true,true,true,true,true,true,true,true,true,true],[true,true,true,true,true,true,true,true,true,true,true,true,true,true],[true,true,true,true,true,true,true,true,true,true,true,true,true,true],[true,true,true,true,true,true,true,true,true,true,true,true,true,true],[true,true,true,true,true,true,true,true,true,true,true,true,true,true],[true,true,true,true,true,true,true,true,true,true,true,true,true,true]],[[true,true,true,true,true,true,true,true,true,true,true,true,true,true],[true,true,true,true,true,true,true,true,true,true,true,true,true,true],[true,true,true,true,true,true,true,true,true,true,true,true,true,true],[true,true,true,true,true,true,true,true,true,true,true,true,true,true],[true,true,true,true,true,true,true,true,true,true,true,true,true,true],[true,true,true,true,true,true,true,true,true,true,true,true,true,true]],[[true,true,true,true,true,true,true,true,true,true,true,true,true,true],[true,true,true,true,true,true,true,true,true,true,true,true,true,true],[true,true,true,true,true,true,true,true,true,true,true,true,true,true],[true,true,true,true,true,true,true,true,true,true,true,true,true,true],[true,true,true,true,true,true,true,true,true,true,true,true,true,true],[true,true,true,true,true,true,true,true,true,true,true,true,true,true]],[[true,true,true,true,true,true,true,true,true,true,true,true,true,true],[true,true,true,true,true,true,true,true,true,true,true,true,true,true],[true,true,true,true,true,true,true,true,true,true,true,true,true,true],[true,true,true,true,true,true,true,true,true,true,true,true,true,true],[true,true,true,true,true,true,true,true,true,true,true,true,true,true],[true,true,true,true,true,true,true,true,true,true,true,true,false,true]],[[true,true,true,true,true,true,true,true,true,true,true,true,true,true],[true,true,true,true,true,true,true,true,true,true,true,true,true,true],[true,true,true,true,true,true,true,true,true,true,true,true,true,true],[true,true,true,true,true,true,true,true,true,true,true,true,true,true],[true,true,true,true,true,true,true,true,true,true,true,true,true,true],[true,true,true,true,true,true,true,true,true,true,true,true,true,true]],[[true,true,true,true,true,true,true,true,true,true,true,true,true,true],[true,true,true,true,true,true,true,true,true,true,true,true,true,true],[true,true,true,true,true,true,true,true,true,true,true,true,true,true],[true,true,true,true,true,true,true,true,true,true,true,true,true,true],[true,true,true,true,true,true,true,true,true,true,true,true,true,true],[true,true,true,true,true,true,true,true,true,true,true,true,true,true]],[[true,true,true,true,true,true,true,true,true,true,true,true,true,true],[true,true,true,true,true,true,true,true,true,true,true,true,true,true],[true,true,true,true,true,true,true,true,true,true,true,true,true,true],[true,true,true,true,true,true,true,true,true,true,true,true,true,true],[true,true,true,true,true,true,true,true,true,true,true,true,true,true],[true,true,true,true,true,true,true,true,true,true,true,true,true,true]],[[true,true,true,true,true,true,true,true,true,true,true,true,true,true],[true,true,true,true,true,true,true,true,true,true,true,true,true,true],[true,true,true,true,true,true,true,true,true,true,true,true,true,true],[true,true,true,true,true,true,true,true,true,true,true,true,true,true],[true,true,true,true,true,true,true,true,true,true,true,true,true,true],[true,true,true,true,true,true,true,true,true,true,true,true,true,true]],[[true,true,true,true,true,true,true,true,true,true,true,true,true,true],[true,true,true,true,true,true,true,true,true,true,true,true,true,true],[true,true,true,true,true,true,true,true,true,true,true,true,true,true],[true,true,true,true,true,true,true,true,true,true,true,true,true,true],[true,true,true,true,true,true,true,true,true,true,true,true,true,true],[true,true,true,true,true,true,true,true,true,true,true,true,true,true]],[[true,true,true,true,true,true,true,true,true,true,true,true,true,true],[true,true,true,true,true,true,true,true,true,true,true,true,true,true],[true,true,true,true,true,true,true,true,true,true,true,true,true,true],[true,true,true,true,true,true,true,true,true,true,true,true,true,true],[true,true,true,true,true,true,true,true,true,true,true,true,true,true],[true,true,true,true,true,true,true,true,true,true,true,true,true,true]],[[true,true,true,true,true,true,true,true,true,true,true,true,true,true],[true,true,true,true,true,true,true,true,true,true,true,true,true,true],[true,true,true,true,true,true,true,true,true,true,true,true,true,true],[true,true,true,true,true,true,true,true,true,true,true,true,true,true],[true,true,true,true,true,true,true,true,true,true,true,true,true,true],[true,true,true,true,true,true,true,true,true,true,true,true,true,true]],[[true,true,true,true,true,true,true,true,true,true,true,true,true,true],[true,true,true,true,true,true,true,true,true,true,true,true,true,true],[true,true,true,true,true,true,true,true,true,true,true,true,true,true],[true,true,true,true,true,true,true,true,true,true,true,true,true,true],[true,true,true,true,true,true,true,true,true,true,true,true,true,true],[true,true,true,true,true,true,true,true,true,true,true,true,true,true]],[[true,true,true,true,true,true,true,true,true,true,true,true,true,true],[true,true,true,true,true,true,true,true,true,true,true,true,true,true],[true,true,true,true,true,true,true,true,true,true,true,true,true,true],[true,true,true,true,true,true,true,true,true,true,true,true,true,true],[true,true,true,true,true,true,true,true,true,true,true,true,true,true],[true,true,true,true,true,true,true,true,true,true,true,true,true,true]],[[true,true,true,true,true,true,true,true,true,true,true,true,true,true],[true,true,true,true,true,true,true,true,true,true,true,true,true,true],[true,true,true,true,true,true,true,true,true,true,true,true,true,true],[true,true,true,true,true,true,true,true,true,true,true,true,true,true],[true,true,true,true,true,true,true,true,true,true,true,true,true,true],[true,true,true,true,true,true,true,true,true,true,true,true,true,true]],[[true,true,true,true,true,true,true,true,true,true,true,true,true,true],[true,true,true,true,true,true,true,true,true,true,true,true,true,true],[true,true,true,true,true,true,true,true,true,true,true,true,true,true],[true,true,true,true,true,true,true,true,true,true,true,true,true,true],[true,true,true,true,true,true,true,true,true,true,true,true,true,true],[true,true,true,true,true,true,true,true,true,true,true,true,false,true]],[[true,true,true,true,true,true,true,true,true,true,true,true,true,true],[true,true,true,true,true,true,true,true,true,true,true,true,true,true],[true,true,true,true,true,true,true,true,true,true,true,true,true,true],[true,true,true,true,true,true,true,true,true,true,true,true,true,true],[true,true,true,true,true,true,true,true,true,true,true,true,true,true],[true,true,true,true,true,true,true,true,true,true,true,true,true,true]],[[true,true,true,true,true,true,true,true,true,true,true,true,true,true],[true,true,true,true,true,true,true,true,true,true,true,true,true,true],[true,true,true,true,true,true,true,true,true,true,true,true,true,true],[true,true,true,true,true,true,true,true,true,true,true,true,true,true],[true,true,true,true,true,true,true,true,true,true,true,true,true,true],[true,true,true,true,true,true,true,true,true,true,true,true,false,true]],[[true,true,true,true,true,true,true,true,true,true,true,true,true,true],[true,true,true,true,true,true,true,true,true,true,true,true,true,true],[true,true,true,true,true,true,true,true,true,true,true,true,true,true],[true,true,true,true,true,true,true,true,true,true,true,true,true,true],[true,true,true,true,true,true,true,true,true,true,true,true,true,true],[true,true,true,true,true,true,true,true,true,true,true,true,true,true]],[[true,true,true,true,true,true,true,true,true,true,true,true,true,true],[true,true,true,true,true,true,true,true,true,true,true,true,true,true],[true,true,true,true,true,true,true,true,true,true,true,true,true,true],[true,true,true,true,true,true,true,true,true,true,true,true,true,true],[true,true,true,true,true,true,true,true,true,true,true,true,true,true],[true,true,true,true,true,true,true,true,true,true,true,true,false,true]],[[true,true,true,true,true,true,true,true,true,true,true,true,true,true],[true,true,true,true,true,true,true,true,true,true,true,true,true,true],[true,true,true,true,true,true,true,true,true,true,true,true,true,true],[true,true,true,true,true,true,true,true,true,true,true,true,true,true],[true,true,true,true,true,true,true,true,true,true,true,true,true,true],[true,true,true,true,true,true,true,true,true,true,true,true,true,true]],[[true,true,true,true,true,true,true,true,true,true,true,true,true,true],[true,true,true,true,true,true,true,true,true,true,true,true,true,true],[true,true,true,true,true,true,true,true,true,true,true,true,true,true],[true,true,true,true,true,true,true,true,true,true,true,true,true,true],[true,true,true,true,true,true,true,true,true,true,true,true,true,true],[true,true,true,true,true,true,true,true,true,true,true,true,false,true]],[[true,true,true,true,true,true,true,true,true,true,true,true,true,true],[true,true,true,true,true,true,true,true,true,true,true,true,true,true],[true,true,true,true,true,true,true,true,true,true,true,true,true,true],[true,true,true,true,true,true,true,true,true,true,true,true,true,true],[true,true,true,true,true,true,true,true,true,true,true,true,true,true],[true,true,true,true,true,true,true,true,true,true,true,true,true,true]],[[true,true,true,true,true,true,true,true,true,true,true,true,true,true],[true,true,true,true,true,true,true,true,true,true,true,true,true,true],[true,true,true,true,true,true,true,true,true,true,true,true,true,true],[true,true,true,true,true,true,true,true,true,true,true,true,true,true],[true,true,true,true,true,true,true,true,true,true,true,true,true,true],[true,true,true,true,true,true,true,true,true,true,true,true,true,true]],[[true,true,true,true,true,true,true,true,true,true,true,true,true,true],[true,true,true,true,true,true,true,true,true,true,true,true,true,true],[true,true,true,true,true,true,true,true,true,true,true,true,true,true],[true,true,true,true,true,true,true,true,true,true,true,true,true,true],[true,true,true,true,true,true,true,true,true,true,true,true,true,true],[true,true,true,true,true,true,true,true,true,true,true,true,true,true]],[[true,true,true,true,true,true,true,true,true,true,true,true,true,true],[true,true,true,true,true,true,true,true,true,true,true,true,true,true],[true,true,true,true,true,true,true,true,true,true,true,true,true,true],[true,true,true,true,true,true,true,true,true,true,true,true,true,true],[true,true,true,true,true,true,true,true,true,true,true,true,true,true],[true,true,true,true,true,true,true,true,true,true,true,true,false,true]],[[true,true,true,true,true,true,true,true,true,true,true,true,true,true],[true,true,true,true,true,true,true,true,true,true,true,true,true,true],[true,true,true,true,true,true,true,true,true,true,true,true,true,true],[true,true,true,true,true,true,true,true,true,true,true,true,true,true],[true,true,true,true,true,true,true,true,true,true,true,true,true,true],[true,true,true,true,true,true,true,true,true,true,true,true,true,true]],[[true,true,true,true,true,true,true,true,true,true,true,true,true,true],[true,true,true,true,true,true,true,true,true,true,true,true,true,true],[true,true,true,true,true,true,true,true,true,true,true,true,true,true],[true,true,true,true,true,true,true,true,true,true,true,true,true,true],[true,true,true,true,true,true,true,true,true,true,true,true,true,true],[true,true,true,true,true,true,true,true,true,true,true,true,true,true]],[[true,true,true,true,true,true,true,true,true,true,true,true,true,true],[true,true,true,true,true,true,true,true,true,true,true,true,true,true],[true,true,true,true,true,true,true,true,true,true,true,true,true,true],[true,true,true,true,true,true,true,true,true,true,true,true,true,true],[true,true,true,true,true,true,true,true,true,true,true,true,true,true],[true,true,true,true,true,true,true,true,true,true,true,true,false,true]],[[true,true,true,true,true,true,true,true,true,true,true,true,true,true],[true,true,true,true,true,true,true,true,true,true,true,true,true,true],[true,true,true,true,true,true,true,true,true,true,true,true,true,true],[true,true,true,true,true,true,true,true,true,true,true,true,true,true],[true,true,true,true,true,true,true,true,true,true,true,true,true,true],[true,true,true,true,true,true,true,true,true,true,true,true,true,true]],[[true,true,true,true,true,true,true,true,true,true,true,true,true,true],[true,true,true,true,true,true,true,true,true,true,true,true,true,true],[true,true,true,true,true,true,true,true,true,true,true,true,true,true],[true,true,true,true,true,true,true,true,true,true,true,true,true,true],[true,true,true,true,true,true,true,true,true,true,true,true,true,true],[true,true,true,true,true,true,true,true,true,true,true,true,true,true]],[[true,true,true,true,true,true,true,true,true,true,true,true,true,true],[true,true,true,true,true,true,true,true,true,true,true,true,true,true],[true,true,true,true,true,true,true,true,true,true,true,true,true,true],[true,true,true,true,true,true,true,true,true,true,true,true,true,true],[true,true,true,true,true,true,true,true,true,true,true,true,true,true],[true,true,true,true,true,true,true,true,true,true,true,true,true,true]],[[true,true,true,true,true,true,true,true,true,true,true,true,true,true],[true,true,true,true,true,true,true,true,true,true,true,true,true,true],[true,true,true,true,true,true,true,true,true,true,true,true,true,true],[true,true,true,true,true,true,true,true,true,true,true,true,true,true],[true,true,true,true,true,true,true,true,true,true,true,true,true,true],[true,true,true,true,true,true,true,true,true,true,true,true,false,true]],[[true,true,true,true,true,true,true,true,true,true,true,true,true,true],[true,true,true,true,true,true,true,true,true,true,true,true,true,true],[true,true,true,true,true,true,true,true,true,true,true,true,true,true],[true,true,true,true,true,true,true,true,true,true,true,true,true,true],[true,true,true,true,true,true,true,true,true,true,true,true,true,true],[true,true,true,true,true,true,true,true,true,true,true,true,false,true]],[[true,true,true,true,true,true,true,true,true,true,true,true,true,true],[true,true,true,true,true,true,true,true,true,true,true,true,true,true],[true,true,true,true,true,true,true,true,true,true,true,true,true,true],[true,true,true,true,true,true,true,true,true,true,true,true,true,true],[true,true,true,true,true,true,true,true,true,true,true,true,true,true],[true,true,true,true,true,true,true,true,true,true,true,true,true,true]],[[true,true,true,true,true,true,true,true,true,true,true,true,true,true],[true,true,true,true,true,true,true,true,true,true,true,true,true,true],[true,true,true,true,true,true,true,true,true,true,true,true,true,true],[true,true,true,true,true,true,true,true,true,true,true,true,true,true],[true,true,true,true,true,true,true,true,true,true,true,true,true,true],[true,true,true,true,true,true,true,true,true,true,true,true,true,true]],[[true,true,true,true,true,true,true,true,true,true,true,true,true,true],[true,true,true,true,true,true,true,true,true,true,true,true,true,true],[true,true,true,true,true,true,true,true,true,true,true,true,true,true],[true,true,true,true,true,true,true,true,true,true,true,true,true,true],[true,true,true,true,true,true,true,true,true,true,true,true,true,true],[true,true,true,true,true,true,true,true,true,true,true,true,false,true]],[[true,true,true,true,true,true,true,true,true,true,true,true,true,true],[true,true,true,true,true,true,true,true,true,true,true,true,true,true],[true,true,true,true,true,true,true,true,true,true,true,true,true,true],[true,true,true,true,true,true,true,true,true,true,true,true,true,true],[true,true,true,true,true,true,true,true,true,true,true,true,true,true],[true,true,true,true,true,true,true,true,true,true,true,true,true,true]],[[true,true,true,true,true,true,true,true,true,true,true,true,true,true],[true,true,true,true,true,true,true,true,true,true,true,true,true,true],[true,true,true,true,true,true,true,true,true,true,true,true,true,true],[true,true,true,true,true,true,true,true,true,true,true,true,true,true],[true,true,true,true,true,true,true,true,true,true,true,true,true,true],[true,true,true,true,true,true,true,true,true,true,true,true,true,true]],[[true,true,true,true,true,true,true,true,true,true,true,true,true,true],[true,true,true,true,true,true,true,true,true,true,true,true,true,true],[true,true,true,true,true,true,true,true,true,true,true,true,true,true],[true,true,true,true,true,true,true,true,true,true,true,true,true,true],[true,true,true,true,true,true,true,true,true,true,true,true,true,true],[true,true,true,true,true,true,true,true,true,true,true,true,true,true]],[[true,true,true,true,true,true,true,true,true,true,true,true,true,true],[true,true,true,true,true,true,true,true,true,true,true,true,true,true],[true,true,true,true,true,true,true,true,true,true,true,true,true,true],[true,true,true,true,true,true,true,true,true,true,true,true,true,true],[true,true,true,true,true,true,true,true,true,true,true,true,true,true],[true,true,true,true,true,true,true,true,true,true,true,true,true,true]],[[true,true,true,true,true,true,true,true,true,true,true,true,true,true],[true,true,true,true,true,true,true,true,true,true,true,true,true,true],[true,true,true,true,true,true,true,true,true,true,true,true,true,true],[true,true,true,true,true,true,true,true,true,true,true,true,true,true],[true,true,true,true,true,true,true,true,true,true,true,true,true,true],[true,true,true,true,true,true,true,true,true,true,true,true,false,true]],[[true,true,true,true,true,true,true,true,true,true,true,true,true,true],[true,true,true,true,true,true,true,true,true,true,true,true,true,true],[true,true,true,true,true,true,true,true,true,true,true,true,true,true],[true,true,true,true,true,true,true,true,true,true,true,true,true,true],[true,true,true,true,true,true,true,true,true,true,true,true,true,true],[true,true,true,true,true,true,true,true,true,true,true,true,false,true]],[[true,true,true,true,true,true,true,true,true,true,true,true,true,true],[true,true,true,true,true,true,true,true,true,true,true,true,true,true],[true,true,true,true,true,true,true,true,true,true,true,true,true,true],[true,true,true,true,true,true,true,true,true,true,true,true,true,true],[true,true,true,true,true,true,true,true,true,true,true,true,true,true],[true,true,true,true,true,true,true,true,true,true,true,true,false,true]],[[true,true,true,true,true,true,true,true,true,true,true,true,true,true],[true,true,true,true,true,true,true,true,true,true,true,true,true,true],[true,true,true,true,true,true,true,true,true,true,true,true,true,true],[true,true,true,true,true,true,true,true,true,true,true,true,true,true],[true,true,true,true,true,true,true,true,true,true,true,true,true,true],[true,true,true,true,true,true,true,true,true,true,true,true,false,true]],[[true,true,true,true,true,true,true,true,true,true,true,true,true,true],[true,true,true,true,true,true,true,true,true,true,true,true,true,true],[true,true,true,true,true,true,true,true,true,true,true,true,true,true],[true,true,true,true,true,true,true,true,true,true,true,true,true,true],[true,true,true,true,true,true,true,true,true,true,true,true,true,true],[true,true,true,true,true,true,true,true,true,true,true,true,true,true]],[[true,true,true,true,true,true,true,true,true,true,true,true,true,true],[true,true,true,true,true,true,true,true,true,true,true,true,true,true],[true,true,true,true,true,true,true,true,true,true,true,true,true,true],[true,true,true,true,true,true,true,true,true,true,true,true,true,true],[true,true,true,true,true,true,true,true,true,true,true,true,true,true],[true,true,true,true,true,true,true,true,true,true,true,true,true,true]],[[true,true,true,true,true,true,true,true,true,true,true,true,true,true],[true,true,true,true,true,true,true,true,true,true,true,true,true,true],[true,true,true,true,true,true,true,true,true,true,true,true,true,true],[true,true,true,true,true,true,true,true,true,true,true,true,true,true],[true,true,true,true,true,true,true,true,true,true,true,true,true,true],[true,true,true,true,true,true,true,true,true,true,true,true,true,true]],[[true,true,true,true,true,true,true,true,true,true,true,true,true,true],[true,true,true,true,true,true,true,true,true,true,true,true,true,true],[true,true,true,true,true,true,true,true,true,true,true,true,true,true],[true,true,true,true,true,true,true,true,true,true,true,true,true,true],[true,true,true,true,true,true,true,true,true,true,true,true,true,true],[true,true,true,true,true,true,true,true,true,true,true,true,true,true]],[[true,true,true,true,true,true,true,true,true,true,true,true,true,true],[true,true,true,true,true,true,true,true,true,true,true,true,true,true],[true,true,true,true,true,true,true,true,true,true,true,true,true,true],[true,true,true,true,true,true,true,true,true,true,true,true,true,true],[true,true,true,true,true,true,true,true,true,true,true,true,true,true],[true,true,true,true,true,true,true,true,true,true,true,true,false,true]],[[true,true,true,true,true,true,true,true,true,true,true,true,true,true],[true,true,true,true,true,true,true,true,true,true,true,true,true,true],[true,true,true,true,true,true,true,true,true,true,true,true,true,true],[true,true,true,true,true,true,true,true,true,true,true,true,true,true],[true,true,true,true,true,true,true,true,true,true,true,true,true,true],[true,true,true,true,true,true,true,true,true,true,true,true,true,true]],[[true,true,true,true,true,true,true,true,true,true,true,true,true,true],[true,true,true,true,true,true,true,true,true,true,true,true,true,true],[true,true,true,true,true,true,true,true,true,true,true,true,true,true],[true,true,true,true,true,true,true,true,true,true,true,true,true,true],[true,true,true,true,true,true,true,true,true,true,true,true,true,true],[true,true,true,true,true,true,true,true,true,true,true,true,false,true]],[[true,true,true,true,true,true,true,true,true,true,true,true,true,true],[true,true,true,true,true,true,true,true,true,true,true,true,true,true],[true,true,true,true,true,true,true,true,true,true,true,true,true,true],[true,true,true,true,true,true,true,true,true,true,true,true,true,true],[true,true,true,true,true,true,true,true,true,true,true,true,true,true],[true,true,true,true,true,true,true,true,true,true,true,true,true,true]],[[true,true,true,true,true,true,true,true,true,true,true,true,true,true],[true,true,true,true,true,true,true,true,true,true,true,true,true,true],[true,true,true,true,true,true,true,true,true,true,true,true,true,true],[true,true,true,true,true,true,true,true,true,true,true,true,true,true],[true,true,true,true,true,true,true,true,true,true,true,true,true,true],[true,true,true,true,true,true,true,true,true,true,true,true,true,true]],[[true,true,true,true,true,true,true,true,true,true,true,true,true,true],[true,true,true,true,true,true,true,true,true,true,true,true,true,true],[true,true,true,true,true,true,true,true,true,true,true,true,true,true],[true,true,true,true,true,true,true,true,true,true,true,true,true,true],[true,true,true,true,true,true,true,true,true,true,true,true,true,true],[true,true,true,true,true,true,true,true,true,true,true,true,true,true]],[[true,true,true,true,true,true,true,true,true,true,true,true,true,true],[true,true,true,true,true,true,true,true,true,true,true,true,true,true],[true,true,true,true,true,true,true,true,true,true,true,true,true,true],[true,true,true,true,true,true,true,true,true,true,true,true,true,true],[true,true,true,true,true,true,true,true,true,true,true,true,true,true],[true,true,true,true,true,true,true,true,true,true,true,true,true,true]],[[true,true,true,true,true,true,true,true,true,true,true,true,true,true],[true,true,true,true,true,true,true,true,true,true,true,true,true,true],[true,true,true,true,true,true,true,true,true,true,true,true,true,true],[true,true,true,true,true,true,true,true,true,true,true,true,true,true],[true,true,true,true,true,true,true,true,true,true,true,true,true,true],[true,true,true,true,true,true,true,true,true,true,true,true,true,true]],[[true,true,true,true,true,true,true,true,true,true,true,true,true,true],[true,true,true,true,true,true,true,true,true,true,true,true,true,true],[true,true,true,true,true,true,true,true,true,true,true,true,true,true],[true,true,true,true,true,true,true,true,true,true,true,true,true,true],[true,true,true,true,true,true,true,true,true,true,true,true,true,true],[true,true,true,true,true,true,true,true,true,true,true,true,false,true]],[[true,true,true,true,true,true,true,true,true,true,true,true,true,true],[true,true,true,true,true,true,true,true,true,true,true,true,true,true],[true,true,true,true,true,true,true,true,true,true,true,true,true,true],[true,true,true,true,true,true,true,true,true,true,true,true,true,true],[true,true,true,true,true,true,true,true,true,true,true,true,false,true],[true,true,true,true,true,true,true,true,true,true,true,false,false,true]],[[true,true,true,true,true,true,true,true,true,true,true,true,true,true],[true,true,true,true,true,true,true,true,true,true,true,true,true,true],[true,true,true,true,true,true,true,true,true,true,true,true,true,true],[true,true,true,true,true,true,true,true,true,true,true,true,true,true],[true,true,true,true,true,true,true,true,true,true,true,true,true,true],[true,true,true,true,true,true,true,true,true,true,true,true,true,true]],[[true,true,true,true,true,true,true,true,true,true,true,true,true,true],[true,true,true,true,true,true,true,true,true,true,true,true,true,true],[true,true,true,true,true,true,true,true,true,true,true,true,true,true],[true,true,true,true,true,true,true,true,true,true,true,true,true,true],[true,true,true,true,true,true,true,true,true,true,true,true,true,true],[true,true,true,true,true,true,true,true,true,true,true,true,false,true]],[[true,true,true,true,true,true,true,true,true,true,true,true,true,true],[true,true,true,true,true,true,true,true,true,true,true,true,true,true],[true,true,true,true,true,true,true,true,true,true,true,true,true,true],[true,true,true,true,true,true,true,true,true,true,true,true,true,true],[true,true,true,true,true,true,true,true,true,true,true,true,true,true],[true,true,true,true,true,true,true,true,true,true,true,true,true,true]],[[true,true,true,true,true,true,true,true,true,true,true,true,true,true],[true,true,true,true,true,true,true,true,true,true,true,true,true,true],[true,true,true,true,true,true,true,true,true,true,true,true,true,true],[true,true,true,true,true,true,true,true,true,true,true,true,true,true],[true,true,true,true,true,true,true,true,true,true,true,true,true,true],[true,true,true,true,true,true,true,true,true,true,true,true,true,true]],[[true,true,true,true,true,true,true,true,true,true,true,true,true,true],[true,true,true,true,true,true,true,true,true,true,true,true,true,true],[true,true,true,true,true,true,true,true,true,true,true,true,true,true],[true,true,true,true,true,true,true,true,true,true,true,true,true,true],[true,true,true,true,true,true,true,true,true,true,true,true,true,true],[true,true,true,true,true,true,true,true,true,true,true,true,true,true]],[[true,true,true,true,true,true,true,true,true,true,true,true,true,true],[true,true,true,true,true,true,true,true,true,true,true,true,true,true],[true,true,true,true,true,true,true,true,true,true,true,true,true,true],[true,true,true,true,true,true,true,true,true,true,true,true,true,true],[true,true,true,true,true,true,true,true,true,true,true,true,true,true],[true,true,true,true,true,true,true,true,true,true,true,true,true,true]],[[true,true,true,true,true,true,true,true,true,true,true,true,true,true],[true,true,true,true,true,true,true,true,true,true,true,true,true,true],[true,true,true,true,true,true,true,true,true,true,true,true,true,true],[true,true,true,true,true,true,true,true,true,true,true,true,true,true],[true,true,true,true,true,true,true,true,true,true,true,true,true,true],[true,true,true,true,true,true,true,true,true,true,true,true,true,true]],[[true,true,true,true,true,true,true,true,true,true,true,true,true,true],[true,true,true,true,true,true,true,true,true,true,true,true,true,true],[true,true,true,true,true,true,true,true,true,true,true,true,true,true],[true,true,true,true,true,true,true,true,true,true,true,true,true,true],[true,true,true,true,true,true,true,true,true,true,true,true,true,true],[true,true,true,true,true,true,true,true,true,true,true,true,true,true]],[[true,true,true,true,true,true,true,true,true,true,true,true,true,true],[true,true,true,true,true,true,true,true,true,true,true,true,true,true],[true,true,true,true,true,true,true,true,true,true,true,true,true,true],[true,true,true,true,true,true,true,true,true,true,true,true,true,true],[true,true,true,true,true,true,true,true,true,true,true,true,true,true],[true,true,true,true,true,true,true,true,true,true,true,true,true,true]],[[true,true,true,true,true,true,true,true,true,true,true,true,true,true],[true,true,true,true,true,true,true,true,true,true,true,true,true,true],[true,true,true,true,true,true,true,true,true,true,true,true,true,true],[true,true,true,true,true,true,true,true,true,true,true,true,true,true],[true,true,true,true,true,true,true,true,true,true,true,true,true,true],[true,true,true,true,true,true,true,true,true,true,true,true,true,true]],[[true,true,true,true,true,true,true,true,true,true,true,true,true,true],[true,true,true,true,true,true,true,true,true,true,true,true,true,true],[true,true,true,true,true,true,true,true,true,true,true,true,true,true],[true,true,true,true,true,true,true,true,true,true,true,true,true,true],[true,true,true,true,true,true,true,true,true,true,true,true,true,true],[true,true,true,true,true,true,true,true,true,true,true,true,true,true]],[[true,true,true,true,true,true,true,true,true,true,true,true,true,true],[true,true,true,true,true,true,true,true,true,true,true,true,true,true],[true,true,true,true,true,true,true,true,true,true,true,true,true,true],[true,true,true,true,true,true,true,true,true,true,true,true,true,true],[true,true,true,true,true,true,true,true,true,true,true,true,true,true],[true,true,true,true,true,true,true,true,true,true,true,true,true,true]],[[true,true,true,true,true,true,true,true,true,true,true,true,true,true],[true,true,true,true,true,true,true,true,true,true,true,true,true,true],[true,true,true,true,true,true,true,true,true,true,true,true,true,true],[true,true,true,true,true,true,true,true,true,true,true,true,true,true],[true,true,true,true,true,true,true,true,true,true,true,true,true,true],[true,true,true,true,true,true,true,true,true,true,true,true,true,true]],[[true,true,true,true,true,true,true,true,true,true,true,true,true,true],[true,true,true,true,true,true,true,true,true,true,true,true,true,true],[true,true,true,true,true,true,true,true,true,true,true,true,true,true],[true,true,true,true,true,true,true,true,true,true,true,true,true,true],[true,true,true,true,true,true,true,true,true,true,true,true,true,true],[true,true,true,true,true,true,true,true,true,true,true,true,false,true]],[[true,true,true,true,true,true,true,true,true,true,true,true,true,true],[true,true,true,true,true,true,true,true,true,true,true,true,true,true],[true,true,true,true,true,true,true,true,true,true,true,true,true,true],[true,true,true,true,true,true,true,true,true,true,true,true,true,true],[true,true,true,true,true,true,true,true,true,true,true,true,true,true],[true,true,true,true,true,true,true,true,true,true,true,true,true,true]],[[true,true,true,true,true,true,true,true,true,true,true,true,true,true],[true,true,true,true,true,true,true,true,true,true,true,true,true,true],[true,true,true,true,true,true,true,true,true,true,true,true,true,true],[true,true,true,true,true,true,true,true,true,true,true,true,true,true],[true,true,true,true,true,true,true,true,true,true,true,true,true,true],[true,true,true,true,true,true,true,true,true,true,true,true,true,true]],[[true,true,true,true,true,true,true,true,true,true,true,true,true,true],[true,true,true,true,true,true,true,true,true,true,true,true,true,true],[true,true,true,true,true,true,true,true,true,true,true,true,true,true],[true,true,true,true,true,true,true,true,true,true,true,true,true,true],[true,true,true,true,true,true,true,true,true,true,true,true,true,true],[true,true,true,true,true,true,true,true,true,true,true,true,true,true]],[[true,true,true,true,true,true,true,true,true,true,true,true,true,true],[true,true,true,true,true,true,true,true,true,true,true,true,true,true],[true,true,true,true,true,true,true,true,true,true,true,true,true,true],[true,true,true,true,true,true,true,true,true,true,true,true,true,true],[true,true,true,true,true,true,true,true,true,true,true,true,true,true],[true,true,true,true,true,true,true,true,true,true,true,true,true,true]],[[true,true,true,true,true,true,true,true,true,true,true,true,true,true],[true,true,true,true,true,true,true,true,true,true,true,true,true,true],[true,true,true,true,true,true,true,true,true,true,true,true,true,true],[true,true,true,true,true,true,true,true,true,true,true,true,true,true],[true,true,true,true,true,true,true,true,true,true,true,true,true,true],[true,true,true,true,true,true,true,true,true,true,true,true,true,true]],[[true,true,true,true,true,true,true,true,true,true,true,true,true,true],[true,true,true,true,true,true,true,true,true,true,true,true,true,true],[true,true,true,true,true,true,true,true,true,true,true,true,true,true],[true,true,true,true,true,true,true,true,true,true,true,true,true,true],[true,true,true,true,true,true,true,true,true,true,true,true,true,true],[true,true,true,true,true,true,true,true,true,true,true,true,false,true]],[[true,true,true,true,true,true,true,true,true,true,true,true,true,true],[true,true,true,true,true,true,true,true,true,true,true,true,true,true],[true,true,true,true,true,true,true,true,true,true,true,true,true,true],[true,true,true,true,true,true,true,true,true,true,true,true,true,true],[true,true,true,true,true,true,true,true,true,true,true,true,true,true],[true,true,true,true,true,true,true,true,true,true,true,true,true,true]],[[true,true,true,true,true,true,true,true,true,true,true,true,true,true],[true,true,true,true,true,true,true,true,true,true,true,true,true,true],[true,true,true,true,true,true,true,true,true,true,true,true,true,true],[true,true,true,true,true,true,true,true,true,true,true,true,true,true],[true,true,true,true,true,true,true,true,true,true,true,true,true,true],[true,true,true,true,true,true,true,true,true,true,true,true,true,true]],[[true,true,true,true,true,true,true,true,true,true,true,true,true,true],[true,true,true,true,true,true,true,true,true,true,true,true,true,true],[true,true,true,true,true,true,true,true,true,true,true,true,true,true],[true,true,true,true,true,true,true,true,true,true,true,true,true,true],[true,true,true,true,true,true,true,true,true,true,true,true,true,true],[true,true,true,true,true,true,true,true,true,true,true,true,true,true]],[[true,true,true,true,true,true,true,true,true,true,true,true,true,true],[true,true,true,true,true,true,true,true,true,true,true,true,true,true],[true,true,true,true,true,true,true,true,true,true,true,true,true,true],[true,true,true,true,true,true,true,true,true,true,true,true,true,true],[true,true,true,true,true,true,true,true,true,true,true,true,true,true],[true,true,true,true,true,true,true,true,true,true,true,true,true,true]],[[true,true,true,true,true,true,true,true,true,true,true,true,true,true],[true,true,true,true,true,true,true,true,true,true,true,true,true,true],[true,true,true,true,true,true,true,true,true,true,true,true,true,true],[true,true,true,true,true,true,true,true,true,true,true,true,true,true],[true,true,true,true,true,true,true,true,true,true,true,true,true,true],[true,true,true,true,true,true,true,true,true,true,true,true,true,true]],[[true,true,true,true,true,true,true,true,true,true,true,true,true,true],[true,true,true,true,true,true,true,true,true,true,true,true,true,true],[true,true,true,true,true,true,true,true,true,true,true,true,true,true],[true,true,true,true,true,true,true,true,true,true,true,true,true,true],[true,true,true,true,true,true,true,true,true,true,true,true,true,true],[true,true,true,true,true,true,true,true,true,true,true,true,true,true]],[[true,true,true,true,true,true,true,true,true,true,true,true,true,true],[true,true,true,true,true,true,true,true,true,true,true,true,true,true],[true,true,true,true,true,true,true,true,true,true,true,true,true,true],[true,true,true,true,true,true,true,true,true,true,true,true,true,true],[true,true,true,true,true,true,true,true,true,true,true,true,true,true],[true,true,true,true,true,true,true,true,true,true,true,true,true,true]],[[true,true,true,true,true,true,true,true,true,true,true,true,true,true],[true,true,true,true,true,true,true,true,true,true,true,true,true,true],[true,true,true,true,true,true,true,true,true,true,true,true,true,true],[true,true,true,true,true,true,true,true,true,true,true,true,true,true],[true,true,true,true,true,true,true,true,true,true,true,true,true,true],[true,true,true,true,true,true,true,true,true,true,true,true,true,true]],[[true,true,true,true,true,true,true,true,true,true,true,true,true,true],[true,true,true,true,true,true,true,true,true,true,true,true,true,true],[true,true,true,true,true,true,true,true,true,true,true,true,true,true],[true,true,true,true,true,true,true,true,true,true,true,true,true,true],[true,true,true,true,true,true,true,true,true,true,true,true,true,true],[true,true,true,true,true,true,true,true,true,true,true,true,true,true]],[[true,true,true,true,true,true,true,true,true,true,true,true,true,true],[true,true,true,true,true,true,true,true,true,true,true,true,true,true],[true,true,true,true,true,true,true,true,true,true,true,true,true,true],[true,true,true,true,true,true,true,true,true,true,true,true,true,true],[true,true,true,true,true,true,true,true,true,true,true,true,true,true],[true,true,true,true,true,true,true,true,true,true,true,true,false,true]],[[true,true,true,true,true,true,true,true,true,true,true,true,true,true],[true,true,true,true,true,true,true,true,true,true,true,true,true,true],[true,true,true,true,true,true,true,true,true,true,true,true,true,true],[true,true,true,true,true,true,true,true,true,true,true,true,true,true],[true,true,true,true,true,true,true,true,true,true,true,true,true,true],[true,true,true,true,true,true,true,true,true,true,true,true,true,true]],[[true,true,true,true,true,true,true,true,true,true,true,true,true,true],[true,true,true,true,true,true,true,true,true,true,true,true,true,true],[true,true,true,true,true,true,true,true,true,true,true,true,true,true],[true,true,true,true,true,true,true,true,true,true,true,true,true,true],[true,true,true,true,true,true,true,true,true,true,true,true,true,true],[true,true,true,true,true,true,true,true,true,true,true,true,true,true]],[[true,true,true,true,true,true,true,true,true,true,true,true,true,true],[true,true,true,true,true,true,true,true,true,true,true,true,true,true],[true,true,true,true,true,true,true,true,true,true,true,true,true,true],[true,true,true,true,true,true,true,true,true,true,true,true,true,true],[true,true,true,true,true,true,true,true,true,true,true,true,true,true],[true,true,true,true,true,true,true,true,true,true,true,true,true,true]],[[true,true,true,true,true,true,true,true,true,true,true,true,true,true],[true,true,true,true,true,true,true,true,true,true,true,true,true,true],[true,true,true,true,true,true,true,true,true,true,true,true,true,true],[true,true,true,true,true,true,true,true,true,true,true,true,true,true],[true,true,true,true,true,true,true,true,true,true,true,true,true,true],[true,true,true,true,true,true,true,true,true,true,true,true,false,true]],[[true,true,true,true,true,true,true,true,true,true,true,true,true,true],[true,true,true,true,true,true,true,true,true,true,true,true,true,true],[true,true,true,true,true,true,true,true,true,true,true,true,true,true],[true,true,true,true,true,true,true,true,true,true,true,true,true,true],[true,true,true,true,true,true,true,true,true,true,true,true,true,true],[true,true,true,true,true,true,true,true,true,true,true,true,true,true]],[[true,true,true,true,true,true,true,true,true,true,true,true,true,true],[true,true,true,true,true,true,true,true,true,true,true,true,true,true],[true,true,true,true,true,true,true,true,true,true,true,true,true,true],[true,true,true,true,true,true,true,true,true,true,true,true,true,true],[true,true,true,true,true,true,true,true,true,true,true,true,true,true],[true,true,true,true,true,true,true,true,true,true,true,true,true,true]],[[true,true,true,true,true,true,true,true,true,true,true,true,true,true],[true,true,true,true,true,true,true,true,true,true,true,true,true,true],[true,true,true,true,true,true,true,true,true,true,true,true,true,true],[true,true,true,true,true,true,true,true,true,true,true,true,true,true],[true,true,true,true,true,true,true,true,true,true,true,true,true,true],[true,true,true,true,true,true,true,true,true,true,true,true,true,true]],[[true,true,true,true,true,true,true,true,true,true,true,true,true,true],[true,true,true,true,true,true,true,true,true,true,true,true,true,true],[true,true,true,true,true,true,true,true,true,true,true,true,true,true],[true,true,true,true,true,true,true,true,true,true,true,true,true,true],[true,true,true,true,true,true,true,true,true,true,true,true,true,true],[true,true,true,true,true,true,true,true,true,true,true,true,true,true]],[[true,true,true,true,true,true,true,true,true,true,true,true,true,true],[true,true,true,true,true,true,true,true,true,true,true,true,true,true],[true,true,true,true,true,true,true,true,true,true,true,true,true,true],[true,true,true,true,true,true,true,true,true,true,true,true,true,true],[true,true,true,true,true,true,true,true,true,true,true,true,true,true],[true,true,true,true,true,true,true,true,true,true,true,true,false,true]]],"line":{"1":{"br_r":0.01938,"rate_a":472.0,"shift":0.0,"br_b":0.0528,"rate_b":472.0,"br_x":0.05917,"rate_c":472.0,"f_bus":1,"br_status":1,"t_bus":2,"index":1,"angmin":-30.0,"angmax":30.0,"tap":0.0},"2":{"br_r":0.05403,"rate_a":128.0,"shift":0.0,"br_b":0.0492,"rate_b":128.0,"br_x":0.22304,"rate_c":128.0,"f_bus":1,"br_status":1,"t_bus":5,"index":2,"angmin":-30.0,"angmax":30.0,"tap":0.0},"16":{"br_r":0.03181,"rate_a":325.0,"shift":0.0,"br_b":0.0,"rate_b":325.0,"br_x":0.0845,"rate_c":325.0,"f_bus":9,"br_status":1,"t_bus":10,"index":16,"angmin":-30.0,"angmax":30.0,"tap":0.0},"11":{"br_r":0.09498,"rate_a":134.0,"shift":0.0,"br_b":0.0,"rate_b":134.0,"br_x":0.1989,"rate_c":134.0,"f_bus":6,"br_status":1,"t_bus":11,"index":11,"angmin":-30.0,"angmax":30.0,"tap":0.0},"7":{"br_r":0.01335,"rate_a":664.0,"shift":0.0,"br_b":0.0,"rate_b":664.0,"br_x":0.04211,"rate_c":664.0,"f_bus":4,"br_status":1,"t_bus":5,"index":7,"angmin":-30.0,"angmax":30.0,"tap":0.0},"9":{"br_r":0.0,"rate_a":53.0,"shift":0.0,"br_b":0.0,"rate_b":53.0,"br_x":0.55618,"rate_c":53.0,"f_bus":4,"br_status":1,"t_bus":9,"index":9,"angmin":-30.0,"angmax":30.0,"tap":0.969},"10":{"br_r":0.0,"rate_a":117.0,"shift":0.0,"br_b":0.0,"rate_b":117.0,"br_x":0.25202,"rate_c":117.0,"f_bus":5,"br_status":1,"t_bus":6,"index":10,"angmin":-30.0,"angmax":30.0,"tap":0.932},"19":{"br_r":0.22092,"rate_a":99.0,"shift":0.0,"br_b":0.0,"rate_b":99.0,"br_x":0.19988,"rate_c":99.0,"f_bus":12,"br_status":1,"t_bus":13,"index":19,"angmin":-30.0,"angmax":30.0,"tap":0.0},"17":{"br_r":0.12711,"rate_a":99.0,"shift":0.0,"br_b":0.0,"rate_b":99.0,"br_x":0.27038,"rate_c":99.0,"f_bus":9,"br_status":1,"t_bus":14,"index":17,"angmin":-30.0,"angmax":30.0,"tap":0.0},"8":{"br_r":0.0,"rate_a":141.0,"shift":0.0,"br_b":0.0,"rate_b":141.0,"br_x":0.20912,"rate_c":141.0,"f_bus":4,"br_status":1,"t_bus":7,"index":8,"angmin":-30.0,"angmax":30.0,"tap":0.978},"6":{"br_r":0.06701,"rate_a":160.0,"shift":0.0,"br_b":0.0128,"rate_b":160.0,"br_x":0.17103,"rate_c":160.0,"f_bus":3,"br_status":1,"t_bus":4,"index":6,"angmin":-30.0,"angmax":30.0,"tap":0.0},"4":{"br_r":0.05811,"rate_a":158.0,"shift":0.0,"br_b":0.034,"rate_b":158.0,"br_x":0.17632,"rate_c":158.0,"f_bus":2,"br_status":1,"t_bus":4,"index":4,"angmin":-30.0,"angmax":30.0,"tap":0.0},"3":{"br_r":0.04699,"rate_a":145.0,"shift":0.0,"br_b":0.0438,"rate_b":145.0,"br_x":0.19797,"rate_c":145.0,"f_bus":2,"br_status":1,"t_bus":3,"index":3,"angmin":-30.0,"angmax":30.0,"tap":0.0},"5":{"br_r":0.05695,"rate_a":161.0,"shift":0.0,"br_b":0.0346,"rate_b":161.0,"br_x":0.17388,"rate_c":161.0,"f_bus":2,"br_status":1,"t_bus":5,"index":5,"angmin":-30.0,"angmax":30.0,"tap":0.0},"20":{"br_r":0.17093,"rate_a":76.0,"shift":0.0,"br_b":0.0,"rate_b":76.0,"br_x":0.34802,"rate_c":76.0,"f_bus":13,"br_status":1,"t_bus":14,"index":20,"angmin":-30.0,"angmax":30.0,"tap":0.0},"13":{"br_r":0.06615,"rate_a":201.0,"shift":0.0,"br_b":0.0,"rate_b":201.0,"br_x":0.13027,"rate_c":201.0,"f_bus":6,"br_status":1,"t_bus":13,"index":13,"angmin":-30.0,"angmax":30.0,"tap":0.0},"14":{"br_r":0.0,"rate_a":167.0,"shift":0.0,"br_b":0.0,"rate_b":167.0,"br_x":0.17615,"rate_c":167.0,"f_bus":7,"br_status":1,"t_bus":8,"index":14,"angmin":-30.0,"angmax":30.0,"tap":0.0},"15":{"br_r":0.0,"rate_a":267.0,"shift":0.0,"br_b":0.0,"rate_b":267.0,"br_x":0.11001,"rate_c":267.0,"f_bus":7,"br_status":1,"t_bus":9,"index":15,"angmin":-30.0,"angmax":30.0,"tap":0.0},"12":{"br_r":0.12291,"rate_a":104.0,"shift":0.0,"br_b":0.0,"rate_b":104.0,"br_x":0.25581,"rate_c":104.0,"f_bus":6,"br_status":1,"t_bus":12,"index":12,"angmin":-30.0,"angmax":30.0,"tap":0.0},"18":{"br_r":0.08205,"rate_a":141.0,"shift":0.0,"br_b":0.0,"rate_b":141.0,"br_x":0.19207,"rate_c":141.0,"f_bus":10,"br_status":1,"t_bus":11,"index":18,"angmin":-30.0,"angmax":30.0,"tap":0.0}},"Edge":{"2":{"out":[3,4,5],"in":[1]},"11":{"out":[],"in":[6,10]},"7":{"out":[8,9],"in":[4]},"9":{"out":[10,14],"in":[4,7]},"10":{"out":[11],"in":[9]},"8":{"out":[],"in":[7]},"6":{"out":[11,12,13],"in":[5]},"4":{"out":[5,7,9],"in":[2,3]},"3":{"out":[4],"in":[2]},"5":{"out":[6],"in":[1,2,4]},"13":{"out":[14],"in":[6,12]},"14":{"out":[],"in":[9,13]},"12":{"out":[13],"in":[6]},"1":{"out":[2,5],"in":[]}},"Lcap":[[0.0,0.0,0.0,0.0,0.0,0.0,0.0,0.0,0.0,0.0,0.0,0.0,0.0,0.0],[157.33333333333334,0.0,0.0,0.0,0.0,0.0,0.0,0.0,0.0,0.0,0.0,0.0,0.0,0.0],[0.0,48.333333333333336,0.0,0.0,0.0,0.0,0.0,0.0,0.0,0.0,0.0,0.0,0.0,0.0],[0.0,52.666666666666664,53.333333333333336,0.0,0.0,0.0,0.0,0.0,0.0,0.0,0.0,0.0,0.0,0.0],[42.666666666666664,53.666666666666664,0.0,221.33333333333334,0.0,0.0,0.0,0.0,0.0,0.0,0.0,0.0,0.0,0.0],[0.0,0.0,0.0,0.0,39.0,0.0,0.0,0.0,0.0,0.0,0.0,0.0,0.0,0.0],[0.0,0.0,0.0,47.0,0.0,0.0,0.0,0.0,0.0,0.0,0.0,0.0,0.0,0.0],[0.0,0.0,0.0,0.0,0.0,0.0,55.666666666666664,0.0,0.0,0.0,0.0,0.0,0.0,0.0],[0.0,0.0,0.0,17.666666666666668,0.0,0.0,89.0,0.0,0.0,0.0,0.0,0.0,0.0,0.0],[0.0,0.0,0.0,0.0,0.0,0.0,0.0,0.0,108.33333333333333,0.0,0.0,0.0,0.0,0.0],[0.0,0.0,0.0,0.0,0.0,44.666666666666664,0.0,0.0,0.0,47.0,0.0,0.0,0.0,0.0],[0.0,0.0,0.0,0.0,0.0,34.666666666666664,0.0,0.0,0.0,0.0,0.0,0.0,0.0,0.0],[0.0,0.0,0.0,0.0,0.0,67.0,0.0,0.0,0.0,0.0,0.0,33.0,0.0,0.0],[0.0,0.0,0.0,0.0,0.0,0.0,0.0,0.0,33.0,0.0,0.0,0.0,25.333333333333332,0.0]],"bus":{"2":{"zone":1,"bus_i":2,"bus_type":2,"qd":12.7,"gs":0.0,"bs":0.0,"vmax":1.06,"area":1,"vmin":0.94,"index":2,"va":-4.25301,"vm":1.04017,"base_kv":0.0,"pd":21.7},"11":{"zone":1,"bus_i":11,"bus_type":1,"qd":1.8,"gs":0.0,"bs":0.0,"vmax":1.06,"area":1,"vmin":0.94,"index":11,"va":-14.35082,"vm":1.04473,"base_kv":0.0,"pd":3.5},"7":{"zone":1,"bus_i":7,"bus_type":1,"qd":0.0,"gs":0.0,"bs":0.0,"vmax":1.06,"area":1,"vmin":0.94,"index":7,"va":-12.83517,"vm":1.04402,"base_kv":0.0,"pd":0.0},"9":{"zone":1,"bus_i":9,"bus_type":1,"qd":16.6,"gs":0.0,"bs":19.0,"vmax":1.06,"area":1,"vmin":0.94,"index":9,"va":-14.45372,"vm":1.04096,"base_kv":0.0,"pd":29.5},"10":{"zone":1,"bus_i":10,"bus_type":1,"qd":5.8,"gs":0.0,"bs":0.0,"vmax":1.06,"area":1,"vmin":0.94,"index":10,"va":-14.63019,"vm":1.03679,"base_kv":0.0,"pd":9.0},"8":{"zone":1,"bus_i":8,"bus_type":2,"qd":0.0,"gs":0.0,"bs":0.0,"vmax":1.06,"area":1,"vmin":0.94,"index":8,"va":-12.83517,"vm":1.06,"base_kv":0.0,"pd":0.0},"6":{"zone":1,"bus_i":6,"bus_type":2,"qd":7.5,"gs":0.0,"bs":0.0,"vmax":1.06,"area":1,"vmin":0.94,"index":6,"va":-13.80994,"vm":1.06,"base_kv":0.0,"pd":11.2},"4":{"zone":1,"bus_i":4,"bus_type":1,"qd":-3.9,"gs":0.0,"bs":0.0,"vmax":1.06,"area":1,"vmin":0.94,"index":4,"va":-9.73409,"vm":1.01043,"base_kv":0.0,"pd":47.8},"3":{"zone":1,"bus_i":3,"bus_type":2,"qd":19.0,"gs":0.0,"bs":0.0,"vmax":1.06,"area":1,"vmin":0.94,"index":3,"va":-12.18882,"vm":1.00788,"base_kv":0.0,"pd":94.2},"5":{"zone":1,"bus_i":5,"bus_type":1,"qd":1.6,"gs":0.0,"bs":0.0,"vmax":1.06,"area":1,"vmin":0.94,"index":5,"va":-8.24922,"vm":1.01324,"base_kv":0.0,"pd":7.6},"13":{"zone":1,"bus_i":13,"bus_type":1,"qd":5.8,"gs":0.0,"bs":0.0,"vmax":1.06,"area":1,"vmin":0.94,"index":13,"va":-14.7504,"vm":1.03948,"base_kv":0.0,"pd":13.5},"14":{"zone":1,"bus_i":14,"bus_type":1,"qd":5.0,"gs":0.0,"bs":0.0,"vmax":1.06,"area":1,"vmin":0.94,"index":14,"va":-15.6084,"vm":1.02209,"base_kv":0.0,"pd":14.9},"12":{"zone":1,"bus_i":12,"bus_type":1,"qd":1.6,"gs":0.0,"bs":0.0,"vmax":1.06,"area":1,"vmin":0.94,"index":12,"va":-14.67866,"vm":1.04467,"base_kv":0.0,"pd":6.1},"1":{"zone":1,"bus_i":1,"bus_type":3,"qd":0.0,"gs":0.0,"bs":0.0,"vmax":1.06,"area":1,"vmin":0.94,"index":1,"va":0.0,"vm":1.06,"base_kv":0.0,"pd":0.0}},"Pg0":[1,1,0,0,0,0,0,0,0,0,0,0,0,0],"S":100,"eps":0.0,"G":5,"Ch":[[19.8,118.8,59.4,59.4,59.4,22.77,9.9,9.9,9.9,7.92,7.92,4.95,6.93,6.93],[19.8,118.8,59.4,59.4,59.4,22.77,9.9,9.9,9.9,7.92,7.92,4.95,6.93,6.93],[19.8,118.8,59.4,59.4,59.4,22.77,9.9,9.9,9.9,7.92,7.92,4.95,6.93,6.93],[19.8,118.8,59.4,59.4,59.4,22.77,9.9,9.9,9.9,7.92,7.92,4.95,6.93,6.93],[19.8,118.8,59.4,59.4,59.4,22.77,9.9,9.9,9.9,7.92,7.92,4.95,6.93,6.93],[19.8,118.8,59.4,59.4,59.4,22.77,9.9,9.9,9.9,7.92,7.92,4.95,6.93,6.93]],"cost":{"4":{"cost":[0.0,0.0,0.0],"model":2,"shutdown":0.0,"startup":0.0,"index":4,"ncost":3},"2":{"cost":[0.0,0.480811,0.0],"model":2,"shutdown":0.0,"startup":0.0,"index":2,"ncost":3},"3":{"cost":[0.0,0.0,0.0],"model":2,"shutdown":0.0,"startup":0.0,"index":3,"ncost":3},"5":{"cost":[0.0,0.0,0.0],"model":2,"shutdown":0.0,"startup":0.0,"index":5,"ncost":3},"1":{"cost":[0.0,1.026133,0.0],"model":2,"shutdown":0.0,"startup":0.0,"index":1,"ncost":3}},"Pd":[[0.0,21.7,94.2,47.8,7.6,11.2,0.0,0.0,29.5,9.0,3.5,6.1,13.5,14.9],[0.0,22.785,98.91000000000001,50.19,7.9799999999999995,11.76,0.0,0.0,30.975,9.450000000000001,3.6750000000000003,6.405,14.175,15.645000000000001],[0.0,23.92425,103.85550000000002,52.6995,8.379,12.348,0.0,0.0,32.52375,9.922500000000001,3.8587500000000006,6.725250000000001,14.883750000000001,16.42725],[0.0,25.120462500000002,109.04827500000003,55.334475000000005,8.79795,12.9654,0.0,0.0,34.1499375,10.418625000000002,4.051687500000001,7.061512500000001,15.627937500000002,17.2486125],[0.0,26.376485625000004,114.50068875000004,58.10119875000001,9.2378475,13.61367,0.0,0.0,35.857434375000004,10.939556250000003,4.254271875000001,7.414588125000002,16.409334375000004,18.111043125000002],[0.0,27.695309906250007,120.22572318750005,61.006258687500015,9.699739875,14.294353500000001,0.0,0.0,37.650306093750004,11.486534062500002,4.466985468750001,7.785317531250002,17.229801093750005,19.01659528125]]}